*SPEF "ieee 1481-1999"
*DESIGN "spm"
*DATE "11:11:11 Fri 11 11, 1111"
*VENDOR "OpenRCX"
*PROGRAM "Parallel Extraction"
*VERSION "1.0"
*DESIGN_FLOW "NAME_SCOPE LOCAL" "PIN_CAP NONE"
*DIVIDER /
*DELIMITER :
*BUS_DELIMITER []
*T_UNIT 1 NS
*C_UNIT 1 PF
*R_UNIT 1 OHM
*L_UNIT 1 HENRY

*NAME_MAP
*3 clk
*4 p
*5 rst
*6 x[0]
*7 x[10]
*8 x[11]
*9 x[12]
*10 x[13]
*11 x[14]
*12 x[15]
*13 x[16]
*14 x[17]
*15 x[18]
*16 x[19]
*17 x[1]
*18 x[20]
*19 x[21]
*20 x[22]
*21 x[23]
*22 x[24]
*23 x[25]
*24 x[26]
*25 x[27]
*26 x[28]
*27 x[29]
*28 x[2]
*29 x[30]
*30 x[31]
*31 x[3]
*32 x[4]
*33 x[5]
*34 x[6]
*35 x[7]
*36 x[8]
*37 x[9]
*38 y
*39 _000_
*40 _001_
*41 _002_
*42 _003_
*43 _004_
*44 _005_
*45 _006_
*46 _007_
*47 _008_
*48 _009_
*49 _010_
*50 _011_
*51 _012_
*52 _013_
*53 _014_
*54 _015_
*55 _016_
*56 _017_
*57 _018_
*58 _019_
*59 _020_
*60 _021_
*61 _022_
*62 _023_
*63 _024_
*64 _025_
*65 _026_
*66 _027_
*67 _028_
*68 _029_
*69 _030_
*70 _031_
*71 _032_
*72 _033_
*73 _034_
*74 _035_
*75 _036_
*76 _037_
*77 _038_
*78 _039_
*79 _040_
*80 _041_
*81 _042_
*82 _043_
*83 _044_
*84 _045_
*85 _046_
*86 _047_
*87 _048_
*88 _049_
*89 _050_
*90 _051_
*91 _052_
*92 _053_
*93 _054_
*94 _055_
*95 _056_
*96 _057_
*97 _058_
*98 _059_
*99 _060_
*100 _061_
*101 _062_
*102 _063_
*103 _064_
*104 _065_
*105 _066_
*106 _067_
*107 _068_
*108 _069_
*109 _070_
*110 _071_
*111 _072_
*112 _073_
*113 _074_
*114 _075_
*115 _076_
*116 _077_
*117 _078_
*118 _079_
*119 _080_
*120 _081_
*121 _082_
*122 _083_
*123 _084_
*124 _085_
*125 _086_
*126 _087_
*127 _088_
*128 _089_
*129 _090_
*130 _091_
*131 _092_
*132 _093_
*133 _094_
*134 _095_
*135 _096_
*136 _097_
*137 _098_
*138 _099_
*139 _100_
*140 _101_
*141 _102_
*142 _103_
*143 _104_
*144 _105_
*145 _106_
*146 _107_
*147 _108_
*148 _109_
*149 _110_
*150 _111_
*151 _112_
*152 _113_
*153 _114_
*154 _115_
*155 _116_
*156 _117_
*157 _118_
*158 _119_
*159 _120_
*160 _121_
*161 _122_
*162 _123_
*163 _124_
*164 _125_
*165 _126_
*166 _127_
*167 _128_
*168 _129_
*169 _130_
*170 _131_
*171 _132_
*172 _133_
*173 _134_
*174 _135_
*175 _136_
*176 _137_
*177 _138_
*178 _139_
*179 _140_
*180 _141_
*181 _142_
*182 _143_
*183 _144_
*184 _145_
*185 _146_
*186 _147_
*187 _148_
*188 _149_
*189 _150_
*190 _151_
*191 _152_
*192 _153_
*193 _154_
*194 _155_
*195 _156_
*196 _157_
*197 _158_
*198 _159_
*199 _160_
*200 _161_
*201 _162_
*202 _163_
*203 _164_
*204 _165_
*205 _166_
*206 _167_
*207 _168_
*208 _169_
*209 _170_
*210 _171_
*211 _172_
*212 _173_
*213 _174_
*214 _175_
*215 _176_
*216 _177_
*217 _178_
*218 _179_
*219 _180_
*220 _181_
*221 _182_
*222 _183_
*223 _184_
*224 _185_
*225 _186_
*226 _187_
*227 _188_
*228 _189_
*229 _190_
*230 _191_
*231 _192_
*232 _193_
*233 _194_
*234 _195_
*235 _196_
*236 _197_
*237 _198_
*238 _199_
*239 _200_
*240 _201_
*241 _202_
*242 _203_
*243 _204_
*244 _205_
*245 clknet_0_clk
*246 clknet_3_0__leaf_clk
*247 clknet_3_1__leaf_clk
*248 clknet_3_2__leaf_clk
*249 clknet_3_3__leaf_clk
*250 clknet_3_4__leaf_clk
*251 clknet_3_5__leaf_clk
*252 clknet_3_6__leaf_clk
*253 clknet_3_7__leaf_clk
*254 csa0\.hsum2
*255 csa0\.sc
*256 csa0\.y
*257 genblk1\[10\]\.csa\.hsum2
*258 genblk1\[10\]\.csa\.sc
*259 genblk1\[10\]\.csa\.sum
*260 genblk1\[10\]\.csa\.y
*261 genblk1\[11\]\.csa\.hsum2
*262 genblk1\[11\]\.csa\.sc
*263 genblk1\[11\]\.csa\.y
*264 genblk1\[12\]\.csa\.hsum2
*265 genblk1\[12\]\.csa\.sc
*266 genblk1\[12\]\.csa\.y
*267 genblk1\[13\]\.csa\.hsum2
*268 genblk1\[13\]\.csa\.sc
*269 genblk1\[13\]\.csa\.y
*270 genblk1\[14\]\.csa\.hsum2
*271 genblk1\[14\]\.csa\.sc
*272 genblk1\[14\]\.csa\.y
*273 genblk1\[15\]\.csa\.hsum2
*274 genblk1\[15\]\.csa\.sc
*275 genblk1\[15\]\.csa\.y
*276 genblk1\[16\]\.csa\.hsum2
*277 genblk1\[16\]\.csa\.sc
*278 genblk1\[16\]\.csa\.y
*279 genblk1\[17\]\.csa\.hsum2
*280 genblk1\[17\]\.csa\.sc
*281 genblk1\[17\]\.csa\.y
*282 genblk1\[18\]\.csa\.hsum2
*283 genblk1\[18\]\.csa\.sc
*284 genblk1\[18\]\.csa\.y
*285 genblk1\[19\]\.csa\.hsum2
*286 genblk1\[19\]\.csa\.sc
*287 genblk1\[19\]\.csa\.y
*288 genblk1\[1\]\.csa\.hsum2
*289 genblk1\[1\]\.csa\.sc
*290 genblk1\[1\]\.csa\.y
*291 genblk1\[20\]\.csa\.hsum2
*292 genblk1\[20\]\.csa\.sc
*293 genblk1\[20\]\.csa\.y
*294 genblk1\[21\]\.csa\.hsum2
*295 genblk1\[21\]\.csa\.sc
*296 genblk1\[21\]\.csa\.y
*297 genblk1\[22\]\.csa\.hsum2
*298 genblk1\[22\]\.csa\.sc
*299 genblk1\[22\]\.csa\.y
*300 genblk1\[23\]\.csa\.hsum2
*301 genblk1\[23\]\.csa\.sc
*302 genblk1\[23\]\.csa\.y
*303 genblk1\[24\]\.csa\.hsum2
*304 genblk1\[24\]\.csa\.sc
*305 genblk1\[24\]\.csa\.y
*306 genblk1\[25\]\.csa\.hsum2
*307 genblk1\[25\]\.csa\.sc
*308 genblk1\[25\]\.csa\.y
*309 genblk1\[26\]\.csa\.hsum2
*310 genblk1\[26\]\.csa\.sc
*311 genblk1\[26\]\.csa\.y
*312 genblk1\[27\]\.csa\.hsum2
*313 genblk1\[27\]\.csa\.sc
*314 genblk1\[27\]\.csa\.y
*315 genblk1\[28\]\.csa\.hsum2
*316 genblk1\[28\]\.csa\.sc
*317 genblk1\[28\]\.csa\.y
*318 genblk1\[29\]\.csa\.hsum2
*319 genblk1\[29\]\.csa\.sc
*320 genblk1\[29\]\.csa\.y
*321 genblk1\[2\]\.csa\.hsum2
*322 genblk1\[2\]\.csa\.sc
*323 genblk1\[2\]\.csa\.y
*324 genblk1\[30\]\.csa\.hsum2
*325 genblk1\[30\]\.csa\.sc
*326 genblk1\[30\]\.csa\.y
*327 genblk1\[3\]\.csa\.hsum2
*328 genblk1\[3\]\.csa\.sc
*329 genblk1\[3\]\.csa\.y
*330 genblk1\[4\]\.csa\.hsum2
*331 genblk1\[4\]\.csa\.sc
*332 genblk1\[4\]\.csa\.y
*333 genblk1\[5\]\.csa\.hsum2
*334 genblk1\[5\]\.csa\.sc
*335 genblk1\[5\]\.csa\.y
*336 genblk1\[6\]\.csa\.hsum2
*337 genblk1\[6\]\.csa\.sc
*338 genblk1\[6\]\.csa\.y
*339 genblk1\[7\]\.csa\.hsum2
*340 genblk1\[7\]\.csa\.sc
*341 genblk1\[7\]\.csa\.y
*342 genblk1\[8\]\.csa\.hsum2
*343 genblk1\[8\]\.csa\.sc
*344 genblk1\[8\]\.csa\.y
*345 genblk1\[9\]\.csa\.hsum2
*346 genblk1\[9\]\.csa\.sc
*347 net1
*348 net10
*349 net11
*350 net12
*351 net13
*352 net14
*353 net15
*354 net16
*355 net17
*356 net18
*357 net19
*358 net2
*359 net20
*360 net21
*361 net22
*362 net23
*363 net24
*364 net25
*365 net26
*366 net27
*367 net28
*368 net29
*369 net3
*370 net30
*371 net31
*372 net32
*373 net33
*374 net34
*375 net35
*376 net4
*377 net5
*378 net6
*379 net7
*380 net8
*381 net9
*382 tcmp\.z
*383 ANTENNA_1
*384 ANTENNA_2
*385 FILLER_0_102
*386 FILLER_0_106
*387 FILLER_0_110
*388 FILLER_0_113
*389 FILLER_0_121
*390 FILLER_0_127
*391 FILLER_0_131
*392 FILLER_0_138
*393 FILLER_0_141
*394 FILLER_0_149
*395 FILLER_0_15
*396 FILLER_0_160
*397 FILLER_0_169
*398 FILLER_0_175
*399 FILLER_0_182
*400 FILLER_0_189
*401 FILLER_0_193
*402 FILLER_0_27
*403 FILLER_0_29
*404 FILLER_0_3
*405 FILLER_0_41
*406 FILLER_0_53
*407 FILLER_0_57
*408 FILLER_0_69
*409 FILLER_0_77
*410 FILLER_0_82
*411 FILLER_0_85
*412 FILLER_0_92
*413 FILLER_0_98
*414 FILLER_10_121
*415 FILLER_10_133
*416 FILLER_10_139
*417 FILLER_10_141
*418 FILLER_10_15
*419 FILLER_10_163
*420 FILLER_10_189
*421 FILLER_10_193
*422 FILLER_10_27
*423 FILLER_10_29
*424 FILLER_10_3
*425 FILLER_10_38
*426 FILLER_10_50
*427 FILLER_10_82
*428 FILLER_10_85
*429 FILLER_10_97
*430 FILLER_11_11
*431 FILLER_11_111
*432 FILLER_11_113
*433 FILLER_11_121
*434 FILLER_11_142
*435 FILLER_11_15
*436 FILLER_11_154
*437 FILLER_11_166
*438 FILLER_11_169
*439 FILLER_11_192
*440 FILLER_11_23
*441 FILLER_11_28
*442 FILLER_11_3
*443 FILLER_11_32
*444 FILLER_11_36
*445 FILLER_11_48
*446 FILLER_11_57
*447 FILLER_11_66
*448 FILLER_11_78
*449 FILLER_11_99
*450 FILLER_12_111
*451 FILLER_12_12
*452 FILLER_12_135
*453 FILLER_12_139
*454 FILLER_12_141
*455 FILLER_12_165
*456 FILLER_12_189
*457 FILLER_12_193
*458 FILLER_12_23
*459 FILLER_12_27
*460 FILLER_12_29
*461 FILLER_12_3
*462 FILLER_12_40
*463 FILLER_12_55
*464 FILLER_12_79
*465 FILLER_12_83
*466 FILLER_12_85
*467 FILLER_13_107
*468 FILLER_13_11
*469 FILLER_13_111
*470 FILLER_13_113
*471 FILLER_13_125
*472 FILLER_13_137
*473 FILLER_13_159
*474 FILLER_13_167
*475 FILLER_13_169
*476 FILLER_13_19
*477 FILLER_13_192
*478 FILLER_13_25
*479 FILLER_13_29
*480 FILLER_13_3
*481 FILLER_13_40
*482 FILLER_13_51
*483 FILLER_13_55
*484 FILLER_13_57
*485 FILLER_13_65
*486 FILLER_13_70
*487 FILLER_13_74
*488 FILLER_13_95
*489 FILLER_14_11
*490 FILLER_14_114
*491 FILLER_14_138
*492 FILLER_14_141
*493 FILLER_14_15
*494 FILLER_14_163
*495 FILLER_14_187
*496 FILLER_14_193
*497 FILLER_14_27
*498 FILLER_14_29
*499 FILLER_14_3
*500 FILLER_14_41
*501 FILLER_14_47
*502 FILLER_14_53
*503 FILLER_14_79
*504 FILLER_14_83
*505 FILLER_14_85
*506 FILLER_14_93
*507 FILLER_15_110
*508 FILLER_15_113
*509 FILLER_15_135
*510 FILLER_15_159
*511 FILLER_15_167
*512 FILLER_15_169
*513 FILLER_15_17
*514 FILLER_15_191
*515 FILLER_15_25
*516 FILLER_15_3
*517 FILLER_15_33
*518 FILLER_15_40
*519 FILLER_15_48
*520 FILLER_15_54
*521 FILLER_15_57
*522 FILLER_15_65
*523 FILLER_15_86
*524 FILLER_15_9
*525 FILLER_16_102
*526 FILLER_16_124
*527 FILLER_16_136
*528 FILLER_16_141
*529 FILLER_16_145
*530 FILLER_16_15
*531 FILLER_16_166
*532 FILLER_16_192
*533 FILLER_16_26
*534 FILLER_16_29
*535 FILLER_16_3
*536 FILLER_16_35
*537 FILLER_16_43
*538 FILLER_16_49
*539 FILLER_16_53
*540 FILLER_16_61
*541 FILLER_16_7
*542 FILLER_16_82
*543 FILLER_16_85
*544 FILLER_16_97
*545 FILLER_17_105
*546 FILLER_17_111
*547 FILLER_17_113
*548 FILLER_17_12
*549 FILLER_17_125
*550 FILLER_17_147
*551 FILLER_17_159
*552 FILLER_17_167
*553 FILLER_17_169
*554 FILLER_17_18
*555 FILLER_17_192
*556 FILLER_17_24
*557 FILLER_17_3
*558 FILLER_17_32
*559 FILLER_17_37
*560 FILLER_17_48
*561 FILLER_17_57
*562 FILLER_17_69
*563 FILLER_17_93
*564 FILLER_18_112
*565 FILLER_18_124
*566 FILLER_18_136
*567 FILLER_18_141
*568 FILLER_18_146
*569 FILLER_18_15
*570 FILLER_18_170
*571 FILLER_18_182
*572 FILLER_18_27
*573 FILLER_18_29
*574 FILLER_18_3
*575 FILLER_18_41
*576 FILLER_18_73
*577 FILLER_18_82
*578 FILLER_18_85
*579 FILLER_18_9
*580 FILLER_18_91
*581 FILLER_19_106
*582 FILLER_19_113
*583 FILLER_19_135
*584 FILLER_19_159
*585 FILLER_19_16
*586 FILLER_19_167
*587 FILLER_19_169
*588 FILLER_19_181
*589 FILLER_19_193
*590 FILLER_19_28
*591 FILLER_19_3
*592 FILLER_19_36
*593 FILLER_19_48
*594 FILLER_19_57
*595 FILLER_19_69
*596 FILLER_19_73
*597 FILLER_19_94
*598 FILLER_1_101
*599 FILLER_1_109
*600 FILLER_1_113
*601 FILLER_1_126
*602 FILLER_1_132
*603 FILLER_1_140
*604 FILLER_1_15
*605 FILLER_1_151
*606 FILLER_1_162
*607 FILLER_1_169
*608 FILLER_1_176
*609 FILLER_1_187
*610 FILLER_1_193
*611 FILLER_1_27
*612 FILLER_1_3
*613 FILLER_1_39
*614 FILLER_1_51
*615 FILLER_1_55
*616 FILLER_1_57
*617 FILLER_1_61
*618 FILLER_1_67
*619 FILLER_1_74
*620 FILLER_1_85
*621 FILLER_1_91
*622 FILLER_1_95
*623 FILLER_20_121
*624 FILLER_20_133
*625 FILLER_20_139
*626 FILLER_20_141
*627 FILLER_20_15
*628 FILLER_20_163
*629 FILLER_20_171
*630 FILLER_20_192
*631 FILLER_20_26
*632 FILLER_20_29
*633 FILLER_20_3
*634 FILLER_20_38
*635 FILLER_20_42
*636 FILLER_20_50
*637 FILLER_20_59
*638 FILLER_20_7
*639 FILLER_20_71
*640 FILLER_20_83
*641 FILLER_20_85
*642 FILLER_20_97
*643 FILLER_21_109
*644 FILLER_21_113
*645 FILLER_21_12
*646 FILLER_21_125
*647 FILLER_21_137
*648 FILLER_21_149
*649 FILLER_21_161
*650 FILLER_21_166
*651 FILLER_21_169
*652 FILLER_21_192
*653 FILLER_21_24
*654 FILLER_21_3
*655 FILLER_21_31
*656 FILLER_21_35
*657 FILLER_21_43
*658 FILLER_21_55
*659 FILLER_21_57
*660 FILLER_21_69
*661 FILLER_21_81
*662 FILLER_22_105
*663 FILLER_22_11
*664 FILLER_22_126
*665 FILLER_22_138
*666 FILLER_22_141
*667 FILLER_22_15
*668 FILLER_22_163
*669 FILLER_22_187
*670 FILLER_22_193
*671 FILLER_22_27
*672 FILLER_22_29
*673 FILLER_22_3
*674 FILLER_22_41
*675 FILLER_22_48
*676 FILLER_22_72
*677 FILLER_22_85
*678 FILLER_22_97
*679 FILLER_23_108
*680 FILLER_23_113
*681 FILLER_23_135
*682 FILLER_23_14
*683 FILLER_23_159
*684 FILLER_23_167
*685 FILLER_23_169
*686 FILLER_23_191
*687 FILLER_23_23
*688 FILLER_23_3
*689 FILLER_23_35
*690 FILLER_23_45
*691 FILLER_23_52
*692 FILLER_23_57
*693 FILLER_23_63
*694 FILLER_23_75
*695 FILLER_23_96
*696 FILLER_24_116
*697 FILLER_24_128
*698 FILLER_24_141
*699 FILLER_24_153
*700 FILLER_24_165
*701 FILLER_24_177
*702 FILLER_24_183
*703 FILLER_24_19
*704 FILLER_24_192
*705 FILLER_24_27
*706 FILLER_24_29
*707 FILLER_24_3
*708 FILLER_24_38
*709 FILLER_24_47
*710 FILLER_24_58
*711 FILLER_24_8
*712 FILLER_24_82
*713 FILLER_24_85
*714 FILLER_24_93
*715 FILLER_25_103
*716 FILLER_25_111
*717 FILLER_25_113
*718 FILLER_25_125
*719 FILLER_25_133
*720 FILLER_25_139
*721 FILLER_25_158
*722 FILLER_25_165
*723 FILLER_25_169
*724 FILLER_25_173
*725 FILLER_25_177
*726 FILLER_25_181
*727 FILLER_25_189
*728 FILLER_25_19
*729 FILLER_25_193
*730 FILLER_25_26
*731 FILLER_25_3
*732 FILLER_25_34
*733 FILLER_25_43
*734 FILLER_25_54
*735 FILLER_25_57
*736 FILLER_25_64
*737 FILLER_25_70
*738 FILLER_25_91
*739 FILLER_26_102
*740 FILLER_26_114
*741 FILLER_26_126
*742 FILLER_26_138
*743 FILLER_26_141
*744 FILLER_26_148
*745 FILLER_26_15
*746 FILLER_26_159
*747 FILLER_26_168
*748 FILLER_26_179
*749 FILLER_26_190
*750 FILLER_26_23
*751 FILLER_26_27
*752 FILLER_26_29
*753 FILLER_26_3
*754 FILLER_26_34
*755 FILLER_26_38
*756 FILLER_26_46
*757 FILLER_26_57
*758 FILLER_26_64
*759 FILLER_26_75
*760 FILLER_26_83
*761 FILLER_26_85
*762 FILLER_26_90
*763 FILLER_27_103
*764 FILLER_27_111
*765 FILLER_27_113
*766 FILLER_27_12
*767 FILLER_27_122
*768 FILLER_27_126
*769 FILLER_27_134
*770 FILLER_27_145
*771 FILLER_27_160
*772 FILLER_27_169
*773 FILLER_27_176
*774 FILLER_27_18
*775 FILLER_27_189
*776 FILLER_27_193
*777 FILLER_27_26
*778 FILLER_27_3
*779 FILLER_27_37
*780 FILLER_27_47
*781 FILLER_27_54
*782 FILLER_27_57
*783 FILLER_27_66
*784 FILLER_27_70
*785 FILLER_27_78
*786 FILLER_27_87
*787 FILLER_27_94
*788 FILLER_28_105
*789 FILLER_28_113
*790 FILLER_28_119
*791 FILLER_28_131
*792 FILLER_28_139
*793 FILLER_28_141
*794 FILLER_28_146
*795 FILLER_28_154
*796 FILLER_28_160
*797 FILLER_28_167
*798 FILLER_28_175
*799 FILLER_28_179
*800 FILLER_28_183
*801 FILLER_28_189
*802 FILLER_28_19
*803 FILLER_28_193
*804 FILLER_28_26
*805 FILLER_28_29
*806 FILLER_28_3
*807 FILLER_28_36
*808 FILLER_28_47
*809 FILLER_28_58
*810 FILLER_28_67
*811 FILLER_28_79
*812 FILLER_28_8
*813 FILLER_28_83
*814 FILLER_28_85
*815 FILLER_28_94
*816 FILLER_29_105
*817 FILLER_29_111
*818 FILLER_29_113
*819 FILLER_29_125
*820 FILLER_29_134
*821 FILLER_29_141
*822 FILLER_29_149
*823 FILLER_29_153
*824 FILLER_29_157
*825 FILLER_29_16
*826 FILLER_29_164
*827 FILLER_29_169
*828 FILLER_29_176
*829 FILLER_29_187
*830 FILLER_29_193
*831 FILLER_29_24
*832 FILLER_29_3
*833 FILLER_29_31
*834 FILLER_29_35
*835 FILLER_29_39
*836 FILLER_29_50
*837 FILLER_29_57
*838 FILLER_29_63
*839 FILLER_29_74
*840 FILLER_29_81
*841 FILLER_29_93
*842 FILLER_2_110
*843 FILLER_2_120
*844 FILLER_2_130
*845 FILLER_2_137
*846 FILLER_2_141
*847 FILLER_2_149
*848 FILLER_2_15
*849 FILLER_2_158
*850 FILLER_2_165
*851 FILLER_2_173
*852 FILLER_2_181
*853 FILLER_2_188
*854 FILLER_2_27
*855 FILLER_2_29
*856 FILLER_2_3
*857 FILLER_2_41
*858 FILLER_2_53
*859 FILLER_2_68
*860 FILLER_2_75
*861 FILLER_2_83
*862 FILLER_2_85
*863 FILLER_2_93
*864 FILLER_2_99
*865 FILLER_30_104
*866 FILLER_30_115
*867 FILLER_30_12
*868 FILLER_30_126
*869 FILLER_30_130
*870 FILLER_30_138
*871 FILLER_30_141
*872 FILLER_30_146
*873 FILLER_30_157
*874 FILLER_30_168
*875 FILLER_30_175
*876 FILLER_30_186
*877 FILLER_30_24
*878 FILLER_30_29
*879 FILLER_30_3
*880 FILLER_30_36
*881 FILLER_30_49
*882 FILLER_30_55
*883 FILLER_30_63
*884 FILLER_30_74
*885 FILLER_30_78
*886 FILLER_30_82
*887 FILLER_30_85
*888 FILLER_30_94
*889 FILLER_30_98
*890 FILLER_31_10
*891 FILLER_31_108
*892 FILLER_31_113
*893 FILLER_31_118
*894 FILLER_31_125
*895 FILLER_31_131
*896 FILLER_31_139
*897 FILLER_31_150
*898 FILLER_31_161
*899 FILLER_31_167
*900 FILLER_31_169
*901 FILLER_31_174
*902 FILLER_31_185
*903 FILLER_31_192
*904 FILLER_31_27
*905 FILLER_31_3
*906 FILLER_31_38
*907 FILLER_31_52
*908 FILLER_31_57
*909 FILLER_31_62
*910 FILLER_31_73
*911 FILLER_31_81
*912 FILLER_31_90
*913 FILLER_31_97
*914 FILLER_32_105
*915 FILLER_32_111
*916 FILLER_32_113
*917 FILLER_32_118
*918 FILLER_32_12
*919 FILLER_32_125
*920 FILLER_32_132
*921 FILLER_32_141
*922 FILLER_32_146
*923 FILLER_32_153
*924 FILLER_32_160
*925 FILLER_32_169
*926 FILLER_32_174
*927 FILLER_32_19
*928 FILLER_32_192
*929 FILLER_32_26
*930 FILLER_32_29
*931 FILLER_32_3
*932 FILLER_32_40
*933 FILLER_32_54
*934 FILLER_32_57
*935 FILLER_32_69
*936 FILLER_32_78
*937 FILLER_32_85
*938 FILLER_32_91
*939 FILLER_32_98
*940 FILLER_3_100
*941 FILLER_3_109
*942 FILLER_3_113
*943 FILLER_3_118
*944 FILLER_3_125
*945 FILLER_3_132
*946 FILLER_3_139
*947 FILLER_3_146
*948 FILLER_3_15
*949 FILLER_3_153
*950 FILLER_3_160
*951 FILLER_3_169
*952 FILLER_3_174
*953 FILLER_3_181
*954 FILLER_3_188
*955 FILLER_3_27
*956 FILLER_3_3
*957 FILLER_3_35
*958 FILLER_3_44
*959 FILLER_3_57
*960 FILLER_3_66
*961 FILLER_3_75
*962 FILLER_3_82
*963 FILLER_3_93
*964 FILLER_4_106
*965 FILLER_4_110
*966 FILLER_4_114
*967 FILLER_4_121
*968 FILLER_4_129
*969 FILLER_4_133
*970 FILLER_4_139
*971 FILLER_4_141
*972 FILLER_4_15
*973 FILLER_4_165
*974 FILLER_4_171
*975 FILLER_4_19
*976 FILLER_4_192
*977 FILLER_4_24
*978 FILLER_4_29
*979 FILLER_4_3
*980 FILLER_4_41
*981 FILLER_4_53
*982 FILLER_4_66
*983 FILLER_4_75
*984 FILLER_4_82
*985 FILLER_4_85
*986 FILLER_4_91
*987 FILLER_4_95
*988 FILLER_5_110
*989 FILLER_5_113
*990 FILLER_5_12
*991 FILLER_5_122
*992 FILLER_5_146
*993 FILLER_5_153
*994 FILLER_5_16
*995 FILLER_5_160
*996 FILLER_5_169
*997 FILLER_5_191
*998 FILLER_5_24
*999 FILLER_5_3
*1000 FILLER_5_31
*1001 FILLER_5_42
*1002 FILLER_5_51
*1003 FILLER_5_55
*1004 FILLER_5_57
*1005 FILLER_5_83
*1006 FILLER_5_89
*1007 FILLER_6_111
*1008 FILLER_6_135
*1009 FILLER_6_139
*1010 FILLER_6_141
*1011 FILLER_6_163
*1012 FILLER_6_17
*1013 FILLER_6_187
*1014 FILLER_6_193
*1015 FILLER_6_25
*1016 FILLER_6_29
*1017 FILLER_6_3
*1018 FILLER_6_37
*1019 FILLER_6_45
*1020 FILLER_6_53
*1021 FILLER_6_58
*1022 FILLER_6_8
*1023 FILLER_6_82
*1024 FILLER_6_85
*1025 FILLER_7_106
*1026 FILLER_7_113
*1027 FILLER_7_12
*1028 FILLER_7_145
*1029 FILLER_7_152
*1030 FILLER_7_159
*1031 FILLER_7_166
*1032 FILLER_7_169
*1033 FILLER_7_192
*1034 FILLER_7_21
*1035 FILLER_7_3
*1036 FILLER_7_33
*1037 FILLER_7_41
*1038 FILLER_7_53
*1039 FILLER_7_57
*1040 FILLER_7_61
*1041 FILLER_7_82
*1042 FILLER_7_90
*1043 FILLER_7_94
*1044 FILLER_8_105
*1045 FILLER_8_11
*1046 FILLER_8_110
*1047 FILLER_8_122
*1048 FILLER_8_134
*1049 FILLER_8_141
*1050 FILLER_8_148
*1051 FILLER_8_155
*1052 FILLER_8_179
*1053 FILLER_8_186
*1054 FILLER_8_19
*1055 FILLER_8_27
*1056 FILLER_8_29
*1057 FILLER_8_3
*1058 FILLER_8_38
*1059 FILLER_8_51
*1060 FILLER_8_59
*1061 FILLER_8_82
*1062 FILLER_8_85
*1063 FILLER_8_97
*1064 FILLER_9_110
*1065 FILLER_9_113
*1066 FILLER_9_136
*1067 FILLER_9_148
*1068 FILLER_9_152
*1069 FILLER_9_159
*1070 FILLER_9_166
*1071 FILLER_9_169
*1072 FILLER_9_17
*1073 FILLER_9_174
*1074 FILLER_9_181
*1075 FILLER_9_188
*1076 FILLER_9_29
*1077 FILLER_9_3
*1078 FILLER_9_33
*1079 FILLER_9_41
*1080 FILLER_9_54
*1081 FILLER_9_57
*1082 FILLER_9_62
*1083 FILLER_9_86
*1084 FILLER_9_9
*1085 PHY_0
*1086 PHY_1
*1087 PHY_10
*1088 PHY_11
*1089 PHY_12
*1090 PHY_13
*1091 PHY_14
*1092 PHY_15
*1093 PHY_16
*1094 PHY_17
*1095 PHY_18
*1096 PHY_19
*1097 PHY_2
*1098 PHY_20
*1099 PHY_21
*1100 PHY_22
*1101 PHY_23
*1102 PHY_24
*1103 PHY_25
*1104 PHY_26
*1105 PHY_27
*1106 PHY_28
*1107 PHY_29
*1108 PHY_3
*1109 PHY_30
*1110 PHY_31
*1111 PHY_32
*1112 PHY_33
*1113 PHY_34
*1114 PHY_35
*1115 PHY_36
*1116 PHY_37
*1117 PHY_38
*1118 PHY_39
*1119 PHY_4
*1120 PHY_40
*1121 PHY_41
*1122 PHY_42
*1123 PHY_43
*1124 PHY_44
*1125 PHY_45
*1126 PHY_46
*1127 PHY_47
*1128 PHY_48
*1129 PHY_49
*1130 PHY_5
*1131 PHY_50
*1132 PHY_51
*1133 PHY_52
*1134 PHY_53
*1135 PHY_54
*1136 PHY_55
*1137 PHY_56
*1138 PHY_57
*1139 PHY_58
*1140 PHY_59
*1141 PHY_6
*1142 PHY_60
*1143 PHY_61
*1144 PHY_62
*1145 PHY_63
*1146 PHY_64
*1147 PHY_65
*1148 PHY_7
*1149 PHY_8
*1150 PHY_9
*1151 TAP_100
*1152 TAP_101
*1153 TAP_102
*1154 TAP_103
*1155 TAP_104
*1156 TAP_105
*1157 TAP_106
*1158 TAP_107
*1159 TAP_108
*1160 TAP_109
*1161 TAP_110
*1162 TAP_111
*1163 TAP_112
*1164 TAP_113
*1165 TAP_114
*1166 TAP_115
*1167 TAP_116
*1168 TAP_117
*1169 TAP_118
*1170 TAP_119
*1171 TAP_120
*1172 TAP_121
*1173 TAP_122
*1174 TAP_123
*1175 TAP_124
*1176 TAP_125
*1177 TAP_126
*1178 TAP_127
*1179 TAP_128
*1180 TAP_129
*1181 TAP_130
*1182 TAP_131
*1183 TAP_132
*1184 TAP_133
*1185 TAP_134
*1186 TAP_135
*1187 TAP_136
*1188 TAP_137
*1189 TAP_138
*1190 TAP_139
*1191 TAP_140
*1192 TAP_141
*1193 TAP_142
*1194 TAP_143
*1195 TAP_144
*1196 TAP_145
*1197 TAP_146
*1198 TAP_147
*1199 TAP_148
*1200 TAP_149
*1201 TAP_150
*1202 TAP_151
*1203 TAP_152
*1204 TAP_153
*1205 TAP_154
*1206 TAP_155
*1207 TAP_156
*1208 TAP_157
*1209 TAP_158
*1210 TAP_159
*1211 TAP_160
*1212 TAP_161
*1213 TAP_162
*1214 TAP_163
*1215 TAP_164
*1216 TAP_165
*1217 TAP_166
*1218 TAP_167
*1219 TAP_168
*1220 TAP_169
*1221 TAP_170
*1222 TAP_66
*1223 TAP_67
*1224 TAP_68
*1225 TAP_69
*1226 TAP_70
*1227 TAP_71
*1228 TAP_72
*1229 TAP_73
*1230 TAP_74
*1231 TAP_75
*1232 TAP_76
*1233 TAP_77
*1234 TAP_78
*1235 TAP_79
*1236 TAP_80
*1237 TAP_81
*1238 TAP_82
*1239 TAP_83
*1240 TAP_84
*1241 TAP_85
*1242 TAP_86
*1243 TAP_87
*1244 TAP_88
*1245 TAP_89
*1246 TAP_90
*1247 TAP_91
*1248 TAP_92
*1249 TAP_93
*1250 TAP_94
*1251 TAP_95
*1252 TAP_96
*1253 TAP_97
*1254 TAP_98
*1255 TAP_99
*1256 _206_
*1257 _207_
*1258 _208_
*1259 _209_
*1260 _210_
*1261 _211_
*1262 _212_
*1263 _213_
*1264 _214_
*1265 _215_
*1266 _216_
*1267 _217_
*1268 _218_
*1269 _219_
*1270 _220_
*1271 _221_
*1272 _222_
*1273 _223_
*1274 _224_
*1275 _225_
*1276 _226_
*1277 _227_
*1278 _228_
*1279 _229_
*1280 _230_
*1281 _231_
*1282 _232_
*1283 _233_
*1284 _234_
*1285 _235_
*1286 _236_
*1287 _237_
*1288 _238_
*1289 _239_
*1290 _240_
*1291 _241_
*1292 _242_
*1293 _243_
*1294 _244_
*1295 _245_
*1296 _246_
*1297 _247_
*1298 _248_
*1299 _249_
*1300 _250_
*1301 _251_
*1302 _252_
*1303 _253_
*1304 _254_
*1305 _255_
*1306 _256_
*1307 _257_
*1308 _258_
*1309 _259_
*1310 _260_
*1311 _261_
*1312 _262_
*1313 _263_
*1314 _264_
*1315 _265_
*1316 _266_
*1317 _267_
*1318 _268_
*1319 _269_
*1320 _270_
*1321 _271_
*1322 _272_
*1323 _273_
*1324 _274_
*1325 _275_
*1326 _276_
*1327 _277_
*1328 _278_
*1329 _279_
*1330 _280_
*1331 _281_
*1332 _282_
*1333 _283_
*1334 _284_
*1335 _285_
*1336 _286_
*1337 _287_
*1338 _288_
*1339 _289_
*1340 _290_
*1341 _291_
*1342 _292_
*1343 _293_
*1344 _294_
*1345 _295_
*1346 _296_
*1347 _297_
*1348 _298_
*1349 _299_
*1350 _300_
*1351 _301_
*1352 _302_
*1353 _303_
*1354 _304_
*1355 _305_
*1356 _306_
*1357 _307_
*1358 _308_
*1359 _309_
*1360 _310_
*1361 _311_
*1362 _312_
*1363 _313_
*1364 _314_
*1365 _315_
*1366 _316_
*1367 _317_
*1368 _318_
*1369 _319_
*1370 _320_
*1371 _321_
*1372 _322_
*1373 _323_
*1374 _324_
*1375 _325_
*1376 _326_
*1377 _327_
*1378 _328_
*1379 _329_
*1380 _330_
*1381 _331_
*1382 _332_
*1383 _333_
*1384 _334_
*1385 _335_
*1386 _336_
*1387 _337_
*1388 _338_
*1389 _339_
*1390 _340_
*1391 _341_
*1392 _342_
*1393 _343_
*1394 _344_
*1395 _345_
*1396 _346_
*1397 _347_
*1398 _348_
*1399 _349_
*1400 _350_
*1401 _351_
*1402 _352_
*1403 _353_
*1404 _354_
*1405 _355_
*1406 _356_
*1407 _357_
*1408 _358_
*1409 _359_
*1410 _360_
*1411 _361_
*1412 _362_
*1413 _363_
*1414 _364_
*1415 _365_
*1416 _366_
*1417 _367_
*1418 _368_
*1419 _369_
*1420 _370_
*1421 _371_
*1422 _372_
*1423 _373_
*1424 _374_
*1425 _375_
*1426 _376_
*1427 _377_
*1428 _378_
*1429 _379_
*1430 _380_
*1431 _381_
*1432 _382_
*1433 _383_
*1434 _384_
*1435 _385_
*1436 _386_
*1437 _387_
*1438 _388_
*1439 _389_
*1440 _390_
*1441 _391_
*1442 _392_
*1443 _393_
*1444 _394_
*1445 _395_
*1446 _396_
*1447 _397_
*1448 _398_
*1449 _399_
*1450 _400_
*1451 _401_
*1452 _402_
*1453 _403_
*1454 _404_
*1455 _405_
*1456 _406_
*1457 _407_
*1458 _408_
*1459 _409_
*1460 _410_
*1461 _411_
*1462 _412_
*1463 _413_
*1464 _414_
*1465 _415_
*1466 _416_
*1467 _417_
*1468 _418_
*1469 _419_
*1470 _420_
*1471 _421_
*1472 _422_
*1473 _423_
*1474 _424_
*1475 _425_
*1476 _426_
*1477 _427_
*1478 _428_
*1479 _429_
*1480 _430_
*1481 _431_
*1482 _432_
*1483 _433_
*1484 _434_
*1485 _435_
*1486 _436_
*1487 _437_
*1488 _438_
*1489 _439_
*1490 _440_
*1491 _441_
*1492 _442_
*1493 _443_
*1494 _444_
*1495 _445_
*1496 _446_
*1497 _447_
*1498 _448_
*1499 _449_
*1500 _450_
*1501 _451_
*1502 _452_
*1503 _453_
*1504 _454_
*1505 _455_
*1506 _456_
*1507 _457_
*1508 _458_
*1509 _459_
*1510 _460_
*1511 _461_
*1512 _462_
*1513 _463_
*1514 _464_
*1515 _465_
*1516 _466_
*1517 _467_
*1518 _468_
*1519 _469_
*1520 _470_
*1521 _471_
*1522 _472_
*1523 _473_
*1524 _474_
*1525 _475_
*1526 _476_
*1527 _477_
*1528 _478_
*1529 _479_
*1530 _480_
*1531 _481_
*1532 _482_
*1533 _483_
*1534 _484_
*1535 _485_
*1536 _486_
*1537 _487_
*1538 _488_
*1539 _489_
*1540 _490_
*1541 _491_
*1542 _492_
*1543 _493_
*1544 _494_
*1545 _495_
*1546 _496_
*1547 _497_
*1548 _498_
*1549 _499_
*1550 _500_
*1551 _501_
*1552 _502_
*1553 _503_
*1554 _504_
*1555 _505_
*1556 _506_
*1557 clkbuf_0_clk
*1558 clkbuf_3_0__f_clk
*1559 clkbuf_3_1__f_clk
*1560 clkbuf_3_2__f_clk
*1561 clkbuf_3_3__f_clk
*1562 clkbuf_3_4__f_clk
*1563 clkbuf_3_5__f_clk
*1564 clkbuf_3_6__f_clk
*1565 clkbuf_3_7__f_clk
*1566 input1
*1567 input10
*1568 input11
*1569 input12
*1570 input13
*1571 input14
*1572 input15
*1573 input16
*1574 input17
*1575 input18
*1576 input19
*1577 input2
*1578 input20
*1579 input21
*1580 input22
*1581 input23
*1582 input24
*1583 input25
*1584 input26
*1585 input27
*1586 input28
*1587 input29
*1588 input3
*1589 input30
*1590 input31
*1591 input32
*1592 input33
*1593 input34
*1594 input4
*1595 input5
*1596 input6
*1597 input7
*1598 input8
*1599 input9
*1600 output35

*PORTS
clk I
p O
rst I
x[0] I
x[10] I
x[11] I
x[12] I
x[13] I
x[14] I
x[15] I
x[16] I
x[17] I
x[18] I
x[19] I
x[1] I
x[20] I
x[21] I
x[22] I
x[23] I
x[24] I
x[25] I
x[26] I
x[27] I
x[28] I
x[29] I
x[2] I
x[30] I
x[31] I
x[3] I
x[4] I
x[5] I
x[6] I
x[7] I
x[8] I
x[9] I
y I

*D_NET *3 0.00530553
*CONN
*P clk I
*I *1557:A I *D sky130_fd_sc_hd__clkbuf_16
*CAP
1 clk 0.0020657
2 *1557:A 0.0020657
3 *1557:A *1530:RESET_B 0.00017113
4 *1557:A *55:12 0.000173385
5 *1557:A *58:23 1.55583e-05
6 *1557:A *242:35 0.000419777
7 *1557:A *242:108 0.00015896
8 *1557:A *278:11 0.000235328
*RES
1 clk *1557:A 18.0957 
*END

*D_NET *4 0.00184479
*CONN
*P p O
*I *1600:X O *D sky130_fd_sc_hd__buf_2
*CAP
1 p 0.000715986
2 *1600:X 0.000715986
3 p *1515:D 6.1197e-05
4 p *258:12 0.00033115
5 p *324:33 2.04694e-05
*RES
1 *1600:X p 6.2671 
*END

*D_NET *5 0.0010723
*CONN
*P rst I
*I *1566:A I *D sky130_fd_sc_hd__clkbuf_1
*CAP
1 rst 0.000404285
2 *1566:A 0.000404285
3 *1566:A *1302:A 0
4 *1566:A *1303:A 0.000122331
5 *1566:A *1422:A 0.000115846
6 *1566:A *1484:A 2.55587e-05
7 *1566:A *127:13 0
*RES
1 rst *1566:A 11.04 
*END

*D_NET *6 0.00322898
*CONN
*P x[0] I
*I *1577:A I *D sky130_fd_sc_hd__clkbuf_1
*CAP
1 x[0] 0.00132118
2 *1577:A 0.00132118
3 *1577:A *1341:B 0.000108678
4 *1577:A *1570:A 0
5 *1577:A *1593:A 0.000286747
6 *1577:A *274:18 8.83835e-05
7 *1577:A *275:18 0.000102817
8 *1577:A *379:20 0
*RES
1 x[0] *1577:A 28.395 
*END

*D_NET *7 0.00283232
*CONN
*P x[10] I
*I *1588:A I *D sky130_fd_sc_hd__clkbuf_1
*CAP
1 x[10] 0.000812876
2 *1588:A 0.000812876
3 *1588:A *1350:A 3.64998e-06
4 *1588:A *1368:A 0.000163928
5 *1588:A *1368:B 7.58604e-05
6 *1588:A *1590:A 7.35729e-05
7 *1588:A *1591:A 0.000109939
8 *1588:A *1592:A 0
9 *1588:A *1594:A 0
10 *1588:A *349:18 0.000648334
11 *1588:A *352:16 0
12 *1588:A *369:17 4.66108e-05
13 *1588:A *381:8 8.46729e-05
*RES
1 x[10] *1588:A 20.865 
*END

*D_NET *8 0.00207743
*CONN
*P x[11] I
*I *1594:A I *D sky130_fd_sc_hd__clkbuf_1
*CAP
1 x[11] 0.000705155
2 *1594:A 0.000705155
3 *1594:A *1369:A1 0.000330705
4 *1594:A *1369:A2 1.75056e-05
5 *1594:A *1595:A 0
6 *1594:A *273:21 8.52883e-05
7 *1594:A *282:16 8.64488e-05
8 *1594:A *352:16 0.00014717
9 *1588:A *1594:A 0
*RES
1 x[11] *1594:A 17.835 
*END

*D_NET *9 0.00234372
*CONN
*P x[12] I
*I *1595:A I *D sky130_fd_sc_hd__clkbuf_1
*CAP
1 x[12] 0.000736862
2 *1595:A 0.000736862
3 *1595:A *1369:B1 0.000116165
4 *1595:A *1596:A 0
5 *1595:A *273:21 0.000158551
6 *1595:A *282:16 0.00015971
7 *1595:A *353:12 0.000435567
8 *1594:A *1595:A 0
*RES
1 x[12] *1595:A 19.08 
*END

*D_NET *10 0.00172586
*CONN
*P x[13] I
*I *1596:A I *D sky130_fd_sc_hd__clkbuf_1
*CAP
1 x[13] 0.00066901
2 *1596:A 0.00066901
3 *1596:A *1536:D 4.9579e-05
4 *1596:A *1597:A 0
5 *1596:A *136:60 3.29947e-05
6 *1596:A *353:12 0
7 *1596:A *379:15 0
8 *1596:A *380:11 0.000305263
9 *1595:A *1596:A 0
*RES
1 x[13] *1596:A 16.05 
*END

*D_NET *11 0.00110306
*CONN
*P x[14] I
*I *1597:A I *D sky130_fd_sc_hd__clkbuf_1
*CAP
1 x[14] 0.00051564
2 *1597:A 0.00051564
3 *1597:A *1598:A 0
4 *1597:A *354:12 0
5 *1597:A *379:15 7.17811e-05
6 *1596:A *1597:A 0
*RES
1 x[14] *1597:A 11.625 
*END

*D_NET *12 0.000993671
*CONN
*P x[15] I
*I *1598:A I *D sky130_fd_sc_hd__clkbuf_1
*CAP
1 x[15] 0.000462499
2 *1598:A 0.000462499
3 *1598:A *1599:A 0
4 *1598:A *354:12 6.86732e-05
5 *1597:A *1598:A 0
*RES
1 x[15] *1598:A 11.97 
*END

*D_NET *13 0.00114283
*CONN
*P x[16] I
*I *1599:A I *D sky130_fd_sc_hd__clkbuf_1
*CAP
1 x[16] 0.00047134
2 *1599:A 0.00047134
3 *1599:A *1567:A 0
4 *1599:A *348:20 7.35813e-05
5 *1599:A *349:18 0.00012657
6 *1598:A *1599:A 0
*RES
1 x[16] *1599:A 12.315 
*END

*D_NET *14 0.00169961
*CONN
*P x[17] I
*I *1567:A I *D sky130_fd_sc_hd__clkbuf_1
*CAP
1 x[17] 0.000534163
2 *1567:A 0.000534163
3 *1567:A *1568:A 0.000162311
4 *1567:A *348:20 0.000115146
5 *1567:A *349:18 0.000353831
6 *1567:A *355:14 0
7 *1599:A *1567:A 0
*RES
1 x[17] *1567:A 14.835 
*END

*D_NET *15 0.00164432
*CONN
*P x[18] I
*I *1568:A I *D sky130_fd_sc_hd__clkbuf_1
*CAP
1 x[18] 0.000590476
2 *1568:A 0.000590476
3 *1568:A *1569:A 0
4 *1568:A *348:20 8.49205e-05
5 *1568:A *349:18 0.000110569
6 *1568:A *350:16 4.2679e-05
7 *1568:A *355:14 6.28843e-05
8 *1567:A *1568:A 0.000162311
*RES
1 x[18] *1568:A 15.285 
*END

*D_NET *16 0.00168648
*CONN
*P x[19] I
*I *1569:A I *D sky130_fd_sc_hd__clkbuf_1
*CAP
1 x[19] 0.000742804
2 *1569:A 0.000742804
3 *1569:A *1571:A 8.64421e-05
4 *1569:A *349:18 1.8535e-05
5 *1569:A *350:16 9.58996e-05
6 *1569:A *355:14 0
7 *1568:A *1569:A 0
*RES
1 x[19] *1569:A 15.735 
*END

*D_NET *17 0.00630358
*CONN