* Extracted by KLayout on : 21/11/2022 10:27

.SUBCKT spm \_088_ \_205_ \_092_ VGND \_094_ net1 \_122_ \_199_ \_126_ rst
+ \_124_ net31 genblk1\[7\].csa.hsum2 \_095_ \_082_ VPWR \_120_ \_129_
+ genblk1\[6\].csa.y \_127_ genblk1\[8\].csa.y \_099_ \_125_ genblk1\[7\].csa.y
+ net30 genblk1\[9\].csa.sc genblk1\[10\].csa.sum net32 genblk1\[6\].csa.sc
+ genblk1\[8\].csa.sc \_128_ genblk1\[7\].csa.sc \_131_ \_123_
+ genblk1\[6\].csa.hsum2 genblk1\[8\].csa.hsum2 \_029_ \_028_ \_204_ \_201_
+ \_121_ \_130_ \_045_ \_077_ \_027_ \_073_ \_043_ \_035_ genblk1\[1\].csa.y
+ genblk1\[9\].csa.hsum2 \_048_ \_065_ \_203_ \_079_ \_049_ \_034_ \_075_
+ \_080_ \_047_ \_083_ genblk1\[1\].csa.sc \_132_ \_076_ \_044_ \_078_ \_054_
+ \_087_ genblk1\[30\].csa.hsum2 \_202_ \_093_ \_019_ \_098_ \_200_ net33
+ \_030_ \_041_ \_040_ clknet_3_4__leaf_clk clknet_3_5__leaf_clk \_036_ \_039_
+ \_038_ \_055_ \_081_ genblk1\[29\].csa.y csa0.y \_100_ csa0.hsum2 net13
+ \_105_ genblk1\[1\].csa.hsum2 net35 csa0.sc \_102_ \_107_
+ clknet_3_0__leaf_clk \_011_ \_037_ \_106_ \_033_ net2 p genblk1\[2\].csa.y
+ clknet_0_clk \_001_ genblk1\[10\].csa.sc \_101_ clknet_3_1__leaf_clk \_042_
+ \_108_ genblk1\[2\].csa.sc genblk1\[5\].csa.sc genblk1\[5\].csa.hsum2 \_026_
+ genblk1\[4\].csa.y \_016_ genblk1\[5\].csa.y \_046_ \_109_ \_118_ \_091_
+ \_052_ \_000_ genblk1\[3\].csa.sc genblk1\[3\].csa.y \_111_
+ genblk1\[13\].csa.sc genblk1\[23\].csa.y \_053_ \_084_ \_074_ \_051_ \_117_
+ \_004_ genblk1\[24\].csa.hsum2 genblk1\[20\].csa.y \_061_ \_096_ \_089_
+ \_022_ genblk1\[21\].csa.hsum2 \_112_ \_050_ \_090_ \_086_ \_085_ \_119_
+ genblk1\[12\].csa.hsum2 genblk1\[11\].csa.y \_060_ genblk1\[25\].csa.hsum2
+ net27 genblk1\[3\].csa.hsum2 genblk1\[26\].csa.y genblk1\[27\].csa.hsum2
+ net24 \_110_ net29 \_113_ genblk1\[4\].csa.hsum2 \_068_ genblk1\[15\].csa.y
+ \_116_ genblk1\[11\].csa.hsum2 genblk1\[16\].csa.hsum2 genblk1\[10\].csa.y
+ genblk1\[19\].csa.hsum2 \_114_ genblk1\[29\].csa.hsum2 \_134_
+ genblk1\[2\].csa.hsum2 \_024_ genblk1\[18\].csa.y genblk1\[28\].csa.y \_025_
+ \_135_ net28 genblk1\[4\].csa.sc \_115_ clknet_3_6__leaf_clk net3
+ genblk1\[23\].csa.hsum2 clknet_3_7__leaf_clk \_136_ genblk1\[14\].csa.sc
+ \_005_ \_058_ \_143_ \_145_ genblk1\[23\].csa.sc genblk1\[10\].csa.hsum2
+ \_072_ \_015_ \_133_ net6 \_144_ \_139_ genblk1\[17\].csa.hsum2 \_137_
+ clknet_3_2__leaf_clk genblk1\[14\].csa.y \_056_ \_020_ \_066_
+ genblk1\[15\].csa.hsum2 genblk1\[13\].csa.y genblk1\[16\].csa.y \_062_|net4
+ genblk1\[11\].csa.sc clk \_017_ genblk1\[25\].csa.sc \_012_ \_070_ \_059_
+ \_003_ \_147_ genblk1\[20\].csa.sc \_069_ genblk1\[29\].csa.sc
+ genblk1\[19\].csa.sc genblk1\[19\].csa.y \_162_ \_010_ \_007_ \_163_ \_013_
+ genblk1\[21\].csa.sc \_164_ genblk1\[28\].csa.hsum2 \_146_ net7 \_138_ \_018_
+ genblk1\[30\].csa.sc \_002_ genblk1\[20\].csa.hsum2 genblk1\[27\].csa.y
+ \_023_ net12 \_154_ genblk1\[17\].csa.sc genblk1\[17\].csa.y
+ genblk1\[13\].csa.hsum2 clknet_3_3__leaf_clk \_031_ \_009_ \_071_ \_148_
+ \_157_ genblk1\[14\].csa.hsum2 \_156_ net10 \_057_ genblk1\[21\].csa.y
+ genblk1\[26\].csa.hsum2 genblk1\[30\].csa.y \_197_ \_158_
+ genblk1\[22\].csa.sc genblk1\[22\].csa.hsum2 \_014_ x[0] \_196_ net25
+ genblk1\[16\].csa.sc x[29] x[31] \_152_ \_153_ \_008_ net23 \_063_
+ genblk1\[18\].csa.sc \_021_ \_190_ x[2] net9 \_160_ \_193_ \_194_ x[28]
+ genblk1\[28\].csa.sc genblk1\[15\].csa.sc \_064_ net22 \_097_ \_155_
+ genblk1\[24\].csa.y \_192_ \_191_ \_151_ \_169_ genblk1\[24\].csa.sc \_179_ y
+ \_149_ genblk1\[12\].csa.y \_140_ \_165_ \_170_ \_178_ x[1]
+ genblk1\[12\].csa.sc net5 net15 \_180_ net18 \_195_ net8 \_141_ \_171_
+ genblk1\[22\].csa.y \_173_ \_104_ tcmp.z net26 net21 \_006_ \_150_ \_198_
+ genblk1\[27\].csa.sc net34 net11 \_172_ \_103_ \_189_ \_188_
+ genblk1\[18\].csa.hsum2 \_067_ \_032_ \_159_ genblk1\[26\].csa.sc x[24]
+ \_142_ \_161_ x[9] x[11] x[12] \_185_ genblk1\[25\].csa.y \_182_ net17 net20
+ \_187_ \_168_ x[13] \_175_ net19 x[26] \_166_ \_176_ \_184_ \_181_ x[6] x[25]
+ x[3] net14 \_167_ \_174_ \_177_ \_186_ \_183_ x[27] x[10] x[22] x[4] x[5]
+ x[15] x[7] x[8] x[14] x[16] x[17] x[18] x[19] x[20] x[21] x[23] x[30] VNB
X$1 VPWR \_205_ VGND VPWR \_088_ VNB sky130_fd_sc_hd__inv_2
X$2 VGND clknet_3_7__leaf_clk \_088_ genblk1\[25\].csa.y
+ genblk1\[26\].csa.hsum2 VPWR VPWR VNB sky130_fd_sc_hd__dfrtp_1
X$3 VPWR \_205_ VGND VPWR \_092_ VNB sky130_fd_sc_hd__inv_2
X$4 VPWR \_199_ VPWR VGND \_205_ VNB sky130_fd_sc_hd__buf_4
X$5 VPWR \_205_ VGND VPWR \_087_ VNB sky130_fd_sc_hd__inv_2
X$6 VPWR \_205_ VGND VPWR \_085_ VNB sky130_fd_sc_hd__inv_2
X$7 VPWR \_205_ VGND VPWR \_091_ VNB sky130_fd_sc_hd__inv_2
X$8 VPWR \_205_ VGND VPWR \_089_ VNB sky130_fd_sc_hd__inv_2
X$9 VPWR \_205_ VGND VPWR \_086_ VNB sky130_fd_sc_hd__inv_2
X$10 VPWR \_205_ VGND VPWR \_090_ VNB sky130_fd_sc_hd__inv_2
X$11 VPWR \_205_ VGND VPWR \_083_ VNB sky130_fd_sc_hd__inv_2
X$12 VPWR \_205_ VGND VPWR \_084_ VNB sky130_fd_sc_hd__inv_2
X$13 VGND clknet_3_7__leaf_clk \_092_ genblk1\[27\].csa.y
+ genblk1\[28\].csa.hsum2 VPWR VPWR VNB sky130_fd_sc_hd__dfrtp_1
X$14 VPWR VPWR VGND VNB sky130_fd_sc_hd__decap_6
X$15 VPWR VGND VPWR VNB sky130_fd_sc_hd__decap_3
X$17 VPWR \_108_ net24 \_099_ \_109_ \_022_ VPWR VGND VNB
+ sky130_fd_sc_hd__a31o_1
X$18 VPWR VPWR VGND VNB sky130_ef_sc_hd__decap_12
X$19 VPWR VGND VPWR VNB sky130_fd_sc_hd__decap_4
X$21 VPWR \_117_ net29 \_099_ \_118_ \_026_ VPWR VGND VNB
+ sky130_fd_sc_hd__a31o_1
X$22 VPWR VGND VPWR VNB sky130_fd_sc_hd__decap_8
X$23 VPWR genblk1\[3\].csa.sc genblk1\[3\].csa.y \_112_ VPWR VGND VNB
+ sky130_fd_sc_hd__and2_1
X$27 VPWR \_202_ VGND VPWR \_061_ VNB sky130_fd_sc_hd__inv_2
X$28 VPWR VGND VPWR VNB sky130_fd_sc_hd__decap_4
X$29 VGND clknet_3_0__leaf_clk \_039_ genblk1\[2\].csa.sc \_022_ VPWR VPWR VNB
+ sky130_fd_sc_hd__dfrtp_1
X$30 VPWR VGND VPWR VNB sky130_fd_sc_hd__decap_4
X$31 VGND clknet_3_0__leaf_clk \_053_ genblk1\[9\].csa.sc \_030_ VPWR VPWR VNB
+ sky130_fd_sc_hd__dfrtp_1
X$34 VPWR VGND VPWR VNB sky130_fd_sc_hd__decap_3
X$35 VGND clknet_3_1__leaf_clk \_078_ genblk1\[20\].csa.y
+ genblk1\[21\].csa.hsum2 VPWR VPWR VNB sky130_fd_sc_hd__dfrtp_1
X$36 VPWR VPWR VGND VNB sky130_ef_sc_hd__decap_12
X$38 VPWR \_201_ VGND VPWR \_050_ VNB sky130_fd_sc_hd__inv_2
X$39 VPWR VGND VPWR VNB sky130_fd_sc_hd__decap_4
X$40 VPWR \_199_ VGND VPWR \_096_ VNB sky130_fd_sc_hd__inv_2
X$41 VPWR VGND VPWR VNB sky130_fd_sc_hd__decap_4
X$45 VPWR VGND VPWR VNB sky130_fd_sc_hd__decap_4
X$46 VPWR VGND VPWR VNB sky130_fd_sc_hd__decap_4
X$47 VPWR VPWR VGND VNB sky130_fd_sc_hd__decap_6
X$48 VPWR VGND VPWR VNB sky130_fd_sc_hd__decap_3
X$49 VPWR VGND VPWR VNB sky130_fd_sc_hd__decap_3
X$50 VPWR VPWR VGND VNB sky130_ef_sc_hd__decap_12
X$51 VPWR VPWR VGND VNB sky130_ef_sc_hd__decap_12
X$55 VPWR \_117_ \_119_ genblk1\[5\].csa.hsum2 VPWR VGND VNB
+ sky130_fd_sc_hd__xnor2_1
X$56 VPWR VPWR VGND VNB sky130_ef_sc_hd__decap_12
X$57 VPWR VPWR VGND VNB sky130_ef_sc_hd__decap_12
X$58 VGND clknet_3_0__leaf_clk \_060_ genblk1\[11\].csa.y
+ genblk1\[12\].csa.hsum2 VPWR VPWR VNB sky130_fd_sc_hd__dfrtp_1
X$61 VPWR VPWR VGND VNB sky130_ef_sc_hd__decap_12
X$62 VPWR VGND VPWR VNB sky130_fd_sc_hd__decap_4
X$63 VGND clknet_0_clk clknet_3_1__leaf_clk VPWR VPWR VNB
+ sky130_fd_sc_hd__clkbuf_16
X$64 VPWR VPWR VGND VNB sky130_ef_sc_hd__decap_12
X$65 VPWR VPWR VGND VNB sky130_fd_sc_hd__decap_6
X$69 VGND clknet_3_4__leaf_clk \_049_ genblk1\[7\].csa.sc \_028_ VPWR VPWR VNB
+ sky130_fd_sc_hd__dfrtp_1
X$70 VPWR VPWR VGND VNB sky130_fd_sc_hd__decap_6
X$71 VGND clknet_3_5__leaf_clk \_086_ genblk1\[24\].csa.y
+ genblk1\[25\].csa.hsum2 VPWR VPWR VNB sky130_fd_sc_hd__dfrtp_1
X$72 VPWR VGND VPWR VNB sky130_fd_sc_hd__decap_4
X$74 VPWR VGND VPWR VNB sky130_fd_sc_hd__decap_3
X$75 VPWR VPWR VGND VNB sky130_fd_sc_hd__decap_6
X$76 VPWR VGND VPWR VNB sky130_fd_sc_hd__decap_3
X$77 VPWR genblk1\[19\].csa.y genblk1\[19\].csa.sc VPWR \_162_ VGND VNB
+ sky130_fd_sc_hd__xor2_1
X$78 VPWR VPWR VGND VNB sky130_ef_sc_hd__decap_12
X$79 VPWR VGND VPWR VNB sky130_fd_sc_hd__decap_3
X$80 VPWR genblk1\[19\].csa.sc genblk1\[19\].csa.y \_163_ VPWR VGND VNB
+ sky130_fd_sc_hd__and2_1
X$81 VPWR VPWR VGND VNB sky130_ef_sc_hd__decap_12
X$82 VPWR VGND VPWR VNB sky130_fd_sc_hd__decap_8
X$84 VPWR VPWR VGND VNB sky130_ef_sc_hd__decap_12
X$85 VPWR VGND VPWR VNB sky130_fd_sc_hd__decap_4
X$87 VGND clknet_3_2__leaf_clk \_077_ genblk1\[21\].csa.sc \_013_ VPWR VPWR VNB
+ sky130_fd_sc_hd__dfrtp_1
X$88 VPWR VPWR VGND VNB sky130_ef_sc_hd__decap_12
X$89 VPWR VPWR VGND VNB sky130_fd_sc_hd__decap_6
X$92 VGND clknet_3_3__leaf_clk \_073_ genblk1\[19\].csa.sc \_010_ VPWR VPWR VNB
+ sky130_fd_sc_hd__dfrtp_1
X$93 VPWR VGND VPWR VNB sky130_fd_sc_hd__decap_4
X$94 VGND clknet_3_6__leaf_clk \_067_ genblk1\[16\].csa.sc \_007_ VPWR VPWR VNB
+ sky130_fd_sc_hd__dfrtp_1
X$95 VPWR VGND VPWR VNB sky130_fd_sc_hd__decap_8
X$98 VPWR VPWR VGND VNB sky130_ef_sc_hd__decap_12
X$99 VPWR VPWR VGND VNB sky130_ef_sc_hd__decap_12
X$101 VPWR VGND VPWR VNB sky130_fd_sc_hd__decap_3
X$102 VPWR VGND VPWR VNB sky130_fd_sc_hd__decap_3
X$103 VPWR VGND VPWR VNB sky130_fd_sc_hd__decap_4
X$105 VPWR \_146_ net7 \_133_ \_147_ \_005_ VPWR VGND VNB
+ sky130_fd_sc_hd__a31o_1
X$106 VPWR VGND VPWR VNB sky130_fd_sc_hd__decap_4
X$107 VPWR \_162_ \_164_ genblk1\[19\].csa.hsum2 VPWR VGND VNB
+ sky130_fd_sc_hd__xnor2_1
X$111 VPWR \_162_ net12 \_133_ \_163_ \_010_ VPWR VGND VNB
+ sky130_fd_sc_hd__a31o_1
X$112 VPWR VGND VPWR VNB sky130_fd_sc_hd__decap_4
X$114 VPWR \_137_ \_062_|net4 \_133_ \_138_ \_002_ VPWR VGND VNB
+ sky130_fd_sc_hd__a31o_1
X$115 VPWR VGND VPWR VNB sky130_fd_sc_hd__decap_4
X$116 VPWR genblk1\[11\].csa.sc genblk1\[11\].csa.y \_138_ VPWR VGND VNB
+ sky130_fd_sc_hd__and2_1
X$117 VPWR VPWR VGND VNB sky130_ef_sc_hd__decap_12
X$118 VPWR VPWR VGND VNB sky130_ef_sc_hd__decap_12
X$121 VPWR VPWR VGND VNB sky130_ef_sc_hd__decap_12
X$122 VPWR VGND VPWR VNB sky130_fd_sc_hd__decap_4
X$123 VGND clknet_0_clk clknet_3_3__leaf_clk VPWR VPWR VNB
+ sky130_fd_sc_hd__clkbuf_16
X$124 VPWR VPWR VGND VNB sky130_ef_sc_hd__decap_12
X$125 VPWR VPWR VGND VNB sky130_fd_sc_hd__decap_6
X$129 VGND clknet_3_6__leaf_clk \_087_ genblk1\[26\].csa.sc \_018_ VPWR VPWR
+ VNB sky130_fd_sc_hd__dfrtp_1
X$130 VPWR VGND VPWR VNB sky130_fd_sc_hd__decap_8
X$133 VPWR VGND VPWR VNB sky130_fd_sc_hd__decap_3
X$134 VPWR VGND VPWR VNB sky130_fd_sc_hd__decap_4
X$135 VPWR VGND VPWR VNB sky130_fd_sc_hd__decap_3
X$136 VPWR x[3] net27 VGND VPWR VNB sky130_fd_sc_hd__clkbuf_1
X$137 VPWR VGND VPWR VNB sky130_fd_sc_hd__decap_4
X$138 VGND genblk1\[30\].csa.hsum2 \_196_ \_198_ VPWR VPWR VNB
+ sky130_fd_sc_hd__xnor2_2
X$139 VPWR VGND VPWR VNB sky130_fd_sc_hd__decap_4
X$140 VPWR \_140_ \_142_ genblk1\[12\].csa.hsum2 VPWR VGND VNB
+ sky130_fd_sc_hd__xnor2_1
X$141 VPWR VGND VPWR VNB sky130_fd_sc_hd__decap_4
X$142 VPWR net30 x[6] VPWR VGND VNB sky130_fd_sc_hd__dlymetal6s2s_1
X$143 VPWR VGND VPWR VNB sky130_fd_sc_hd__decap_4
X$146 VPWR \_154_ net14 \_168_ VPWR VGND VNB sky130_fd_sc_hd__nand2_1
X$147 VPWR VGND VPWR VNB sky130_fd_sc_hd__decap_4
X$148 VPWR \_166_ net14 \_165_ \_167_ \_012_ VPWR VGND VNB
+ sky130_fd_sc_hd__a31o_1
X$149 VPWR VGND VPWR VNB sky130_fd_sc_hd__decap_8
X$151 VPWR \_172_ \_174_ genblk1\[22\].csa.hsum2 VPWR VGND VNB
+ sky130_fd_sc_hd__xnor2_1
X$152 VPWR VGND VPWR VNB sky130_fd_sc_hd__decap_4
X$153 VPWR \_154_ \$323 \_174_ VPWR VGND VNB sky130_fd_sc_hd__nand2_1
X$154 VPWR VGND VPWR VNB sky130_fd_sc_hd__decap_4
X$155 VPWR \_175_ \_177_ genblk1\[23\].csa.hsum2 VPWR VGND VNB
+ sky130_fd_sc_hd__xnor2_1
X$156 VPWR VGND VPWR VNB sky130_fd_sc_hd__decap_4
X$159 VPWR \_154_ net17 \_177_ VPWR VGND VNB sky130_fd_sc_hd__nand2_1
X$160 VPWR VGND VPWR VNB sky130_fd_sc_hd__decap_4
X$161 VPWR \_154_ net19 \_183_ VPWR VGND VNB sky130_fd_sc_hd__nand2_1
X$162 VPWR VPWR VGND VNB sky130_fd_sc_hd__decap_6
X$164 VPWR \_184_ \_186_ genblk1\[26\].csa.hsum2 VPWR VGND VNB
+ sky130_fd_sc_hd__xnor2_1
X$165 VPWR VGND VPWR VNB sky130_fd_sc_hd__decap_4
X$166 VPWR \_181_ \_183_ genblk1\[25\].csa.hsum2 VPWR VGND VNB
+ sky130_fd_sc_hd__xnor2_1
X$167 VPWR VGND VPWR VNB sky130_fd_sc_hd__decap_4
X$168 VPWR genblk1\[25\].csa.y genblk1\[25\].csa.sc VPWR \_181_ VGND VNB
+ sky130_fd_sc_hd__xor2_1
X$169 VPWR VPWR VGND VNB sky130_fd_sc_hd__decap_6
X$173 VPWR x[25] net19 VGND VPWR VNB sky130_fd_sc_hd__clkbuf_1
X$174 VPWR VGND VPWR VNB sky130_fd_sc_hd__decap_4
X$175 VPWR \_187_ \_189_ genblk1\[27\].csa.hsum2 VPWR VGND VNB
+ sky130_fd_sc_hd__xnor2_1
X$176 VPWR VGND VPWR VNB sky130_fd_sc_hd__decap_4
X$177 VPWR x[27] net21 VGND VPWR VNB sky130_fd_sc_hd__clkbuf_1
X$179 VPWR VGND VPWR VNB sky130_fd_sc_hd__decap_3
X$180 VPWR VGND VPWR VNB sky130_fd_sc_hd__decap_3
X$181 VPWR VPWR VGND VNB sky130_fd_sc_hd__decap_6
X$182 VPWR x[4] net28 VGND VPWR VNB sky130_fd_sc_hd__clkbuf_1
X$183 VPWR VGND VPWR VNB sky130_fd_sc_hd__decap_4
X$184 VPWR x[5] net29 VGND VPWR VNB sky130_fd_sc_hd__clkbuf_1
X$185 VPWR VGND VPWR VNB sky130_fd_sc_hd__decap_4
X$186 VPWR \_154_ net9 \_155_ VPWR VGND VNB sky130_fd_sc_hd__nand2_1
X$189 VPWR VGND VPWR VNB sky130_fd_sc_hd__decap_8
X$190 VPWR x[10] net3 VGND VPWR VNB sky130_fd_sc_hd__clkbuf_1
X$191 VPWR VGND VPWR VNB sky130_fd_sc_hd__decap_4
X$192 VPWR net31 x[7] VPWR VGND VNB sky130_fd_sc_hd__dlymetal6s2s_1
X$196 VPWR net32 x[8] VPWR VGND VNB sky130_fd_sc_hd__dlymetal6s2s_1
X$197 VPWR VGND VPWR VNB sky130_fd_sc_hd__decap_4
X$198 VPWR genblk1\[20\].csa.sc genblk1\[20\].csa.y \_167_ VPWR VGND VNB
+ sky130_fd_sc_hd__and2_1
X$199 VPWR VPWR VGND VNB sky130_fd_sc_hd__decap_6
X$201 VPWR VGND VPWR VNB sky130_fd_sc_hd__decap_3
X$202 VPWR x[14] net7 VGND VPWR VNB sky130_fd_sc_hd__clkbuf_1
X$203 VPWR VGND VPWR VNB sky130_fd_sc_hd__decap_4
X$204 VPWR x[15] net8 VGND VPWR VNB sky130_fd_sc_hd__clkbuf_1
X$205 VPWR VGND VPWR VNB sky130_fd_sc_hd__decap_4
X$206 VPWR x[16] net9 VGND VPWR VNB sky130_fd_sc_hd__clkbuf_1
X$207 VPWR VPWR VGND VNB sky130_fd_sc_hd__decap_6
X$211 VPWR x[17] net10 VGND VPWR VNB sky130_fd_sc_hd__clkbuf_1
X$212 VPWR VGND VPWR VNB sky130_fd_sc_hd__decap_4
X$213 VPWR x[18] net11 VGND VPWR VNB sky130_fd_sc_hd__clkbuf_1
X$214 VPWR VGND VPWR VNB sky130_fd_sc_hd__decap_4
X$215 VPWR x[19] net12 VGND VPWR VNB sky130_fd_sc_hd__clkbuf_1
X$216 VPWR VGND VPWR VNB sky130_fd_sc_hd__decap_8
X$219 VPWR x[20] net14 VGND VPWR VNB sky130_fd_sc_hd__clkbuf_1
X$220 VPWR VGND VPWR VNB sky130_fd_sc_hd__decap_4
X$221 VPWR x[21] net15 VGND VPWR VNB sky130_fd_sc_hd__clkbuf_1
X$222 VPWR VGND VPWR VNB sky130_fd_sc_hd__decap_4
X$223 VPWR x[22] \$323 VGND VPWR VNB sky130_fd_sc_hd__clkbuf_1
X$224 VPWR VGND VPWR VNB sky130_fd_sc_hd__decap_8
X$227 VPWR x[23] net17 VGND VPWR VNB sky130_fd_sc_hd__clkbuf_1
X$228 VPWR VGND VPWR VNB sky130_fd_sc_hd__decap_8
X$229 VPWR net25 x[30] VPWR VGND VNB sky130_fd_sc_hd__dlymetal6s2s_1
X$231 VPWR VGND VPWR VNB sky130_fd_sc_hd__decap_3
X$233 VPWR VGND VPWR VNB sky130_fd_sc_hd__decap_3
X$234 VPWR genblk1\[14\].csa.y genblk1\[14\].csa.sc VPWR \_146_ VGND VNB
+ sky130_fd_sc_hd__xor2_1
X$235 VPWR VPWR VGND VNB sky130_ef_sc_hd__decap_12
X$236 VPWR VGND VPWR VNB sky130_fd_sc_hd__decap_4
X$237 VPWR \_154_ net12 \_164_ VPWR VGND VNB sky130_fd_sc_hd__nand2_1
X$238 VPWR VGND VPWR VNB sky130_fd_sc_hd__decap_4
X$240 VPWR genblk1\[17\].csa.y genblk1\[17\].csa.sc VPWR \_156_ VGND VNB
+ sky130_fd_sc_hd__xor2_1
X$241 VPWR VPWR VGND VNB sky130_ef_sc_hd__decap_12
X$244 VPWR VPWR VGND VNB sky130_ef_sc_hd__decap_12
X$245 VPWR VPWR VGND VNB sky130_ef_sc_hd__decap_12
X$246 VPWR VGND VPWR VNB sky130_fd_sc_hd__decap_8
X$247 VGND clknet_3_3__leaf_clk \_076_ genblk1\[19\].csa.y
+ genblk1\[20\].csa.hsum2 VPWR VPWR VNB sky130_fd_sc_hd__dfrtp_1
X$248 VPWR VGND VPWR VNB sky130_fd_sc_hd__decap_3
X$250 VPWR VPWR VGND VNB sky130_ef_sc_hd__decap_12
X$251 VPWR VPWR VGND VNB sky130_ef_sc_hd__decap_12
X$252 VPWR VPWR VGND VNB sky130_ef_sc_hd__decap_12
X$253 VPWR VPWR VGND VNB sky130_ef_sc_hd__decap_12
X$254 VPWR VGND VPWR VNB sky130_fd_sc_hd__decap_3
X$259 VGND \_095_ genblk1\[30\].csa.sc clknet_3_7__leaf_clk \_023_ VPWR VPWR
+ VNB sky130_fd_sc_hd__dfrtp_2
X$261 VPWR VGND VPWR VNB sky130_fd_sc_hd__decap_3
X$262 VPWR VGND VPWR VNB sky130_fd_sc_hd__decap_3
X$263 VPWR VGND VPWR VNB sky130_fd_sc_hd__decap_8
X$265 VPWR \_122_ net7 \_148_ VPWR VGND VNB sky130_fd_sc_hd__nand2_1
X$266 VPWR VPWR VGND VNB sky130_ef_sc_hd__decap_12
X$269 VPWR VPWR VGND VNB sky130_ef_sc_hd__decap_12
X$271 VPWR genblk1\[17\].csa.sc genblk1\[17\].csa.y \_157_ VPWR VGND VNB
+ sky130_fd_sc_hd__and2_1
X$272 VPWR VGND VPWR VNB sky130_fd_sc_hd__decap_4
X$273 VGND clknet_3_2__leaf_clk \_057_ genblk1\[11\].csa.sc \_002_ VPWR VPWR
+ VNB sky130_fd_sc_hd__dfrtp_1
X$274 VPWR VPWR VGND VNB sky130_ef_sc_hd__decap_12
X$276 VPWR VPWR VGND VNB sky130_ef_sc_hd__decap_12
X$277 VPWR VGND VPWR VNB sky130_fd_sc_hd__decap_8
X$279 VGND clknet_3_3__leaf_clk \_071_ genblk1\[18\].csa.sc \_009_ VPWR VPWR
+ VNB sky130_fd_sc_hd__dfrtp_1
X$280 VPWR VPWR VGND VNB sky130_ef_sc_hd__decap_12
X$284 VGND clknet_3_7__leaf_clk \_069_ genblk1\[17\].csa.sc \_008_ VPWR VPWR
+ VNB sky130_fd_sc_hd__dfrtp_1
X$285 VPWR VGND VPWR VNB sky130_fd_sc_hd__decap_4
X$286 VGND clknet_3_7__leaf_clk \_035_ tcmp.z \_032_ VPWR VPWR VNB
+ sky130_fd_sc_hd__dfrtp_1
X$287 VPWR VPWR VGND VNB sky130_fd_sc_hd__decap_6
X$289 VPWR VGND VPWR VNB sky130_fd_sc_hd__decap_3
X$291 VPWR VGND VPWR VNB sky130_fd_sc_hd__decap_3
X$292 VPWR genblk1\[2\].csa.y genblk1\[2\].csa.sc VPWR \_108_ VGND VNB
+ sky130_fd_sc_hd__xor2_1
X$293 VPWR VGND VPWR VNB sky130_fd_sc_hd__decap_4
X$294 VPWR genblk1\[2\].csa.sc genblk1\[2\].csa.y \_109_ VPWR VGND VNB
+ sky130_fd_sc_hd__and2_1
X$295 VPWR VPWR VGND VNB sky130_ef_sc_hd__decap_12
X$296 VPWR VGND VPWR VNB sky130_fd_sc_hd__decap_3
X$297 VPWR genblk1\[5\].csa.sc genblk1\[5\].csa.y \_118_ VPWR VGND VNB
+ sky130_fd_sc_hd__and2_1
X$298 VPWR VPWR VGND VNB sky130_ef_sc_hd__decap_12
X$299 VPWR VGND VPWR VNB sky130_fd_sc_hd__decap_3
X$301 VPWR VGND VPWR VNB sky130_fd_sc_hd__decap_4
X$303 VGND clknet_3_0__leaf_clk \_045_ genblk1\[5\].csa.sc \_026_ VPWR VPWR VNB
+ sky130_fd_sc_hd__dfrtp_1
X$304 VPWR VGND VPWR VNB sky130_fd_sc_hd__decap_8
X$306 VPWR \_200_ VGND VPWR \_042_ VNB sky130_fd_sc_hd__inv_2
X$307 VPWR VPWR VGND VNB sky130_ef_sc_hd__decap_12
X$308 VPWR VPWR VGND VNB sky130_fd_sc_hd__decap_6
X$310 VPWR VPWR VGND VNB sky130_ef_sc_hd__decap_12
X$311 VGND clknet_3_4__leaf_clk \_083_ genblk1\[24\].csa.sc \_016_ VPWR VPWR
+ VNB sky130_fd_sc_hd__dfrtp_1
X$312 VPWR VGND VPWR VNB sky130_fd_sc_hd__decap_4
X$313 VPWR VGND VPWR VNB sky130_fd_sc_hd__decap_4
X$314 VPWR \_201_ VGND VPWR \_046_ VNB sky130_fd_sc_hd__inv_2
X$315 VPWR VGND VPWR VNB sky130_fd_sc_hd__decap_4
X$316 VPWR \_201_ VGND VPWR \_052_ VNB sky130_fd_sc_hd__inv_2
X$319 VPWR VGND VPWR VNB sky130_fd_sc_hd__decap_3
X$320 VGND clknet_3_5__leaf_clk \_046_ genblk1\[4\].csa.y
+ genblk1\[5\].csa.hsum2 VPWR VPWR VNB sky130_fd_sc_hd__dfrtp_1
X$322 VPWR VGND VPWR VNB sky130_fd_sc_hd__decap_3
X$323 VPWR VGND VPWR VNB sky130_fd_sc_hd__decap_3
X$324 VPWR VGND VPWR VNB sky130_fd_sc_hd__decap_8
X$326 VPWR \_100_ net2 \_099_ \_101_ \_000_ VPWR VGND VNB
+ sky130_fd_sc_hd__a31o_1
X$327 VPWR VGND VPWR VNB sky130_fd_sc_hd__decap_8
X$331 VPWR genblk1\[5\].csa.y genblk1\[5\].csa.sc VPWR \_117_ VGND VNB
+ sky130_fd_sc_hd__xor2_1
X$332 VPWR VPWR VGND VNB sky130_fd_sc_hd__decap_6
X$333 VPWR genblk1\[3\].csa.y genblk1\[3\].csa.sc VPWR \_111_ VGND VNB
+ sky130_fd_sc_hd__xor2_1
X$334 VPWR VGND VPWR VNB sky130_fd_sc_hd__decap_8
X$335 VPWR VGND VPWR VNB sky130_fd_sc_hd__decap_3
X$336 VGND clknet_3_0__leaf_clk \_061_ genblk1\[13\].csa.sc \_004_ VPWR VPWR
+ VNB sky130_fd_sc_hd__dfrtp_1
X$339 VPWR VPWR VGND VNB sky130_ef_sc_hd__decap_12
X$340 VPWR VGND VPWR VNB sky130_fd_sc_hd__decap_8
X$342 VPWR \_202_ VGND VPWR \_053_ VNB sky130_fd_sc_hd__inv_2
X$343 VPWR VPWR VGND VNB sky130_ef_sc_hd__decap_12
X$344 VPWR VPWR VGND VNB sky130_ef_sc_hd__decap_12
X$345 VPWR VPWR VGND VNB sky130_fd_sc_hd__decap_6
X$347 VPWR VGND VPWR VNB sky130_fd_sc_hd__decap_4
X$348 VPWR VGND VPWR VNB sky130_fd_sc_hd__decap_4
X$349 VPWR \_204_ VGND VPWR \_074_ VNB sky130_fd_sc_hd__inv_2
X$350 VPWR VGND VPWR VNB sky130_fd_sc_hd__decap_4
X$351 VGND clknet_3_4__leaf_clk \_084_ genblk1\[23\].csa.y
+ genblk1\[24\].csa.hsum2 VPWR VPWR VNB sky130_fd_sc_hd__dfrtp_1
X$352 VPWR VGND VPWR VNB sky130_fd_sc_hd__decap_4
X$353 VPWR \_201_ VGND VPWR \_051_ VNB sky130_fd_sc_hd__inv_2
X$354 VPWR VGND VPWR VNB sky130_fd_sc_hd__decap_8
X$355 VPWR VGND VPWR VNB sky130_fd_sc_hd__decap_3
X$356 VPWR VPWR VGND VNB sky130_ef_sc_hd__decap_12
X$357 VPWR VGND VPWR VNB sky130_fd_sc_hd__decap_3
X$358 VPWR VPWR VGND VNB sky130_ef_sc_hd__decap_12
X$361 VPWR VPWR VGND VNB sky130_ef_sc_hd__decap_12
X$362 VPWR VPWR VGND VNB sky130_ef_sc_hd__decap_12
X$363 VPWR VGND VPWR VNB sky130_fd_sc_hd__decap_3
X$365 VPWR VPWR VGND VNB sky130_ef_sc_hd__decap_12
X$366 VPWR VGND VPWR VNB sky130_fd_sc_hd__decap_8
X$370 VPWR VGND VPWR VNB sky130_fd_sc_hd__decap_4
X$371 VPWR \_122_ net31 \_126_ VPWR VGND VNB sky130_fd_sc_hd__nand2_1
X$372 VPWR VPWR VGND VNB sky130_fd_sc_hd__decap_6
X$374 VPWR rst net1 VGND VPWR VNB sky130_fd_sc_hd__clkbuf_1
X$375 VPWR VGND VPWR VNB sky130_fd_sc_hd__decap_4
X$377 VPWR \_199_ VGND VPWR \_094_ VNB sky130_fd_sc_hd__inv_2
X$381 VPWR net1 VGND \_199_ VPWR VNB sky130_fd_sc_hd__clkbuf_4
X$382 VPWR VPWR VGND VNB sky130_fd_sc_hd__decap_6
X$384 VPWR VGND VPWR VNB sky130_fd_sc_hd__decap_4
X$385 VPWR \_199_ VGND VPWR \_095_ VNB sky130_fd_sc_hd__inv_2
X$389 VPWR \_199_ VPWR VGND \_203_ VNB sky130_fd_sc_hd__buf_4
X$390 VPWR VGND VPWR VNB sky130_fd_sc_hd__decap_4
X$391 VPWR \_124_ \_126_ genblk1\[7\].csa.hsum2 VPWR VGND VNB
+ sky130_fd_sc_hd__xnor2_1
X$392 VPWR VGND VPWR VNB sky130_fd_sc_hd__decap_8
X$394 VPWR VPWR VGND VNB sky130_fd_sc_hd__decap_6
X$396 VPWR \_199_ VPWR VGND \_201_ VNB sky130_fd_sc_hd__buf_4
X$397 VPWR VGND VPWR VNB sky130_fd_sc_hd__decap_4
X$398 VPWR \_204_ VGND VPWR \_082_ VNB sky130_fd_sc_hd__inv_2
X$399 VPWR VGND VPWR VNB sky130_fd_sc_hd__decap_4
X$401 VPWR VGND VPWR VNB sky130_fd_sc_hd__decap_3
X$402 VPWR VGND VPWR VNB sky130_fd_sc_hd__decap_3
X$403 VPWR VGND VPWR VNB sky130_fd_sc_hd__decap_3
X$404 VPWR VGND VPWR VNB sky130_fd_sc_hd__decap_4
X$405 VPWR VPWR VGND VNB sky130_fd_sc_hd__decap_6
X$407 VPWR \_134_ net3 \_133_ \_135_ \_001_ VPWR VGND VNB
+ sky130_fd_sc_hd__a31o_1
X$409 VPWR \_134_ \_136_ genblk1\[10\].csa.hsum2 VPWR VGND VNB
+ sky130_fd_sc_hd__xnor2_1
X$410 VPWR VGND VPWR VNB sky130_fd_sc_hd__decap_4
X$411 VPWR VGND VPWR VNB sky130_fd_sc_hd__decap_8
X$412 VPWR \_143_ net6 \_133_ \_144_ \_004_ VPWR VGND VNB
+ sky130_fd_sc_hd__a31o_1
X$414 VPWR \_143_ \_145_ genblk1\[13\].csa.hsum2 VPWR VGND VNB
+ sky130_fd_sc_hd__xnor2_1
X$417 VPWR VPWR VGND VNB sky130_fd_sc_hd__decap_6
X$418 VPWR VGND VPWR VNB sky130_fd_sc_hd__decap_4
X$420 VPWR \_137_ \_139_ genblk1\[11\].csa.hsum2 VPWR VGND VNB
+ sky130_fd_sc_hd__xnor2_1
X$421 VPWR \_122_ net6 \_145_ VPWR VGND VNB sky130_fd_sc_hd__nand2_1
X$422 VPWR VGND VPWR VNB sky130_fd_sc_hd__decap_8
X$423 VPWR VPWR VGND VNB sky130_fd_sc_hd__decap_6
X$424 VPWR VGND VPWR VNB sky130_fd_sc_hd__decap_3
X$426 VPWR \_203_ VGND VPWR \_066_ VNB sky130_fd_sc_hd__inv_2
X$427 VPWR \_202_ VGND VPWR \_058_ VNB sky130_fd_sc_hd__inv_2
X$428 VPWR VGND VPWR VNB sky130_fd_sc_hd__decap_8
X$431 VPWR VGND VPWR VNB sky130_fd_sc_hd__decap_8
X$433 VGND clknet_3_2__leaf_clk \_056_ genblk1\[10\].csa.sum
+ genblk1\[10\].csa.hsum2 VPWR VPWR VNB sky130_fd_sc_hd__dfrtp_1
X$435 VGND clknet_0_clk clknet_3_2__leaf_clk VPWR VPWR VNB
+ sky130_fd_sc_hd__clkbuf_16
X$438 VPWR VPWR VGND VNB sky130_ef_sc_hd__decap_12
X$439 VPWR VGND VPWR VNB sky130_fd_sc_hd__decap_4
X$440 VGND clknet_3_1__leaf_clk \_072_ genblk1\[17\].csa.y
+ genblk1\[18\].csa.hsum2 VPWR VPWR VNB sky130_fd_sc_hd__dfrtp_1
X$441 VPWR VGND VPWR VNB sky130_fd_sc_hd__decap_3
X$444 VGND clknet_3_3__leaf_clk \_066_ genblk1\[14\].csa.y
+ genblk1\[15\].csa.hsum2 VPWR VPWR VNB sky130_fd_sc_hd__dfrtp_1
X$448 VGND clknet_3_1__leaf_clk \_081_ genblk1\[23\].csa.sc \_015_ VPWR VPWR
+ VNB sky130_fd_sc_hd__dfrtp_1
X$449 VPWR VPWR VGND VNB sky130_ef_sc_hd__decap_12
X$450 VPWR VGND VPWR VNB sky130_fd_sc_hd__decap_4
X$451 VPWR VGND VPWR VNB sky130_fd_sc_hd__decap_4
X$452 VGND clknet_0_clk clknet_3_6__leaf_clk VPWR VPWR VNB
+ sky130_fd_sc_hd__clkbuf_16
X$454 VPWR VGND VPWR VNB sky130_fd_sc_hd__decap_4
X$456 VGND clknet_3_7__leaf_clk \_070_ genblk1\[16\].csa.y
+ genblk1\[17\].csa.hsum2 VPWR VPWR VNB sky130_fd_sc_hd__dfrtp_1
X$457 VPWR VGND VPWR VNB sky130_fd_sc_hd__decap_8
X$458 VPWR VPWR VGND VNB sky130_fd_sc_hd__decap_6
X$462 VGND clknet_0_clk clknet_3_7__leaf_clk VPWR VPWR VNB
+ sky130_fd_sc_hd__clkbuf_16
X$463 VGND clknet_3_7__leaf_clk \_091_ genblk1\[28\].csa.sc \_020_ VPWR VPWR
+ VNB sky130_fd_sc_hd__dfrtp_1
X$464 VPWR VGND VPWR VNB sky130_fd_sc_hd__decap_3
X$466 VPWR VGND VPWR VNB sky130_fd_sc_hd__decap_3
X$467 VPWR VGND VPWR VNB sky130_fd_sc_hd__decap_3
X$468 VPWR VGND VPWR VNB sky130_fd_sc_hd__decap_3
X$469 VPWR VGND VPWR VNB sky130_fd_sc_hd__decap_3
X$470 VPWR VGND VPWR VNB sky130_fd_sc_hd__decap_3
X$471 VPWR VGND VPWR VNB sky130_fd_sc_hd__decap_8
X$472 VGND genblk1\[30\].csa.sc genblk1\[30\].csa.y \_196_ VPWR VPWR VNB
+ sky130_fd_sc_hd__xor2_2
X$473 VPWR \_097_ VGND \_098_ VPWR VNB sky130_fd_sc_hd__buf_2
X$474 VPWR VGND VPWR VNB sky130_fd_sc_hd__decap_4
X$475 VPWR VGND VPWR VNB sky130_fd_sc_hd__decap_4
X$476 VPWR \_098_ VGND \_133_ VPWR VNB sky130_fd_sc_hd__buf_2
X$477 VPWR VGND VPWR VNB sky130_fd_sc_hd__decap_4
X$478 VPWR x[2] net24 VGND VPWR VNB sky130_fd_sc_hd__clkbuf_1
X$479 VPWR VGND VPWR VNB sky130_fd_sc_hd__decap_8
X$483 VPWR \_122_ net8 \_151_ VPWR VGND VNB sky130_fd_sc_hd__nand2_1
X$484 VPWR VGND VPWR VNB sky130_fd_sc_hd__decap_4
X$486 VPWR \_152_ net9 \_133_ \_153_ \_007_ VPWR VGND VNB
+ sky130_fd_sc_hd__a31o_1
X$488 VPWR \_152_ \_155_ genblk1\[16\].csa.hsum2 VPWR VGND VNB
+ sky130_fd_sc_hd__xnor2_1
X$489 VPWR VGND VPWR VNB sky130_fd_sc_hd__decap_8
X$490 VPWR VGND VPWR VNB sky130_fd_sc_hd__decap_4
X$491 VPWR \_159_ net11 \_133_ \_160_ \_009_ VPWR VGND VNB
+ sky130_fd_sc_hd__a31o_1
X$492 VPWR \_203_ VGND VPWR \_063_ VNB sky130_fd_sc_hd__inv_2
X$495 VPWR VGND VPWR VNB sky130_fd_sc_hd__decap_4
X$497 VPWR genblk1\[18\].csa.sc genblk1\[18\].csa.y \_160_ VPWR VGND VNB
+ sky130_fd_sc_hd__and2_1
X$498 VPWR \_203_ VGND VPWR \_064_ VNB sky130_fd_sc_hd__inv_2
X$499 VPWR VPWR VGND VNB sky130_fd_sc_hd__decap_6
X$500 VPWR VGND VPWR VNB sky130_fd_sc_hd__decap_4
X$501 VPWR genblk1\[21\].csa.y genblk1\[21\].csa.sc VPWR \_169_ VGND VNB
+ sky130_fd_sc_hd__xor2_1
X$503 VGND clknet_3_3__leaf_clk \_064_ genblk1\[13\].csa.y
+ genblk1\[14\].csa.hsum2 VPWR VPWR VNB sky130_fd_sc_hd__dfrtp_1
X$504 VPWR VGND VPWR VNB sky130_fd_sc_hd__decap_8
X$508 VPWR \_202_ VGND VPWR \_056_ VNB sky130_fd_sc_hd__inv_2
X$509 VPWR VPWR VGND VNB sky130_ef_sc_hd__decap_12
X$510 VPWR VPWR VGND VNB sky130_ef_sc_hd__decap_12
X$511 VPWR VPWR VGND VNB sky130_ef_sc_hd__decap_12
X$512 VPWR VGND VPWR VNB sky130_fd_sc_hd__decap_8
X$515 VPWR VPWR VGND VNB sky130_ef_sc_hd__decap_12
X$516 VPWR VPWR VGND VNB sky130_ef_sc_hd__decap_12
X$517 VPWR VGND VPWR VNB sky130_fd_sc_hd__decap_8
X$518 VPWR VPWR VGND VNB sky130_ef_sc_hd__decap_12
X$519 VPWR VGND VPWR VNB sky130_fd_sc_hd__decap_3
X$520 VPWR \_203_ VGND VPWR \_071_ VNB sky130_fd_sc_hd__inv_2
X$522 VPWR VPWR VGND VNB sky130_ef_sc_hd__decap_12
X$525 VPWR genblk1\[24\].csa.sc genblk1\[24\].csa.y \_179_ VPWR VGND VNB
+ sky130_fd_sc_hd__and2_1
X$526 VPWR VGND VPWR VNB sky130_fd_sc_hd__decap_4
X$527 VPWR \_193_ net23 \_165_ \_194_ \_021_ VPWR VGND VNB
+ sky130_fd_sc_hd__a31o_1
X$528 VPWR genblk1\[29\].csa.y genblk1\[29\].csa.sc VPWR \_193_ VGND VNB
+ sky130_fd_sc_hd__xor2_1
X$529 VPWR VGND VPWR VNB sky130_fd_sc_hd__decap_4
X$530 VPWR VGND VPWR VNB sky130_fd_sc_hd__decap_4
X$531 VPWR \_202_ VGND VPWR \_059_ VNB sky130_fd_sc_hd__inv_2
X$532 VPWR genblk1\[29\].csa.sc genblk1\[29\].csa.y \_194_ VPWR VGND VNB
+ sky130_fd_sc_hd__and2_1
X$533 VPWR VGND VPWR VNB sky130_fd_sc_hd__decap_3
X$534 VPWR VGND VPWR VNB sky130_fd_sc_hd__decap_4
X$536 VPWR VGND VPWR VNB sky130_fd_sc_hd__decap_4
X$537 VPWR \_190_ \_192_ genblk1\[28\].csa.hsum2 VPWR VGND VNB
+ sky130_fd_sc_hd__xnor2_1
X$539 VPWR x[28] net22 VGND VPWR VNB sky130_fd_sc_hd__clkbuf_1
X$540 VPWR VGND VPWR VNB sky130_fd_sc_hd__decap_4
X$541 VPWR VGND VPWR VNB sky130_fd_sc_hd__decap_4
X$543 VPWR genblk1\[28\].csa.y genblk1\[28\].csa.sc VPWR \_190_ VGND VNB
+ sky130_fd_sc_hd__xor2_1
X$544 VPWR \_190_ net22 \_165_ \_191_ \_020_ VPWR VGND VNB
+ sky130_fd_sc_hd__a31o_1
X$545 VPWR VGND VPWR VNB sky130_fd_sc_hd__decap_4
X$546 VPWR VGND VPWR VNB sky130_fd_sc_hd__decap_4
X$548 VPWR VGND VPWR VNB sky130_fd_sc_hd__decap_3
X$549 VPWR VGND VPWR VNB sky130_fd_sc_hd__decap_3
X$550 VPWR VGND VPWR VNB sky130_fd_sc_hd__decap_3
X$551 VPWR VGND VPWR VNB sky130_fd_sc_hd__decap_3
X$553 VPWR VGND VPWR VNB sky130_fd_sc_hd__decap_8
X$554 VPWR \_149_ \_151_ genblk1\[15\].csa.hsum2 VPWR VGND VNB
+ sky130_fd_sc_hd__xnor2_1
X$555 VPWR genblk1\[15\].csa.sc genblk1\[15\].csa.y \_150_ VPWR VGND VNB
+ sky130_fd_sc_hd__and2_1
X$556 VPWR VGND VPWR VNB sky130_fd_sc_hd__decap_8
X$557 VPWR VGND VPWR VNB sky130_fd_sc_hd__decap_4
X$558 VPWR net34 VGND \_097_ VPWR VNB sky130_fd_sc_hd__buf_2
X$559 VPWR \_097_ VGND \_122_ VPWR VNB sky130_fd_sc_hd__buf_2
X$560 VPWR VGND VPWR VNB sky130_fd_sc_hd__decap_4
X$561 VPWR VGND VPWR VNB sky130_fd_sc_hd__decap_4
X$562 VPWR \_122_ net5 \_142_ VPWR VGND VNB sky130_fd_sc_hd__nand2_1
X$564 VPWR VGND VPWR VNB sky130_fd_sc_hd__decap_3
X$565 VPWR VGND VPWR VNB sky130_fd_sc_hd__decap_4
X$566 VPWR \_097_ VGND \_154_ VPWR VNB sky130_fd_sc_hd__buf_2
X$568 VPWR \_154_ net11 \_161_ VPWR VGND VNB sky130_fd_sc_hd__nand2_1
X$569 VPWR VPWR VGND VNB sky130_fd_sc_hd__decap_6
X$570 VPWR VGND VPWR VNB sky130_fd_sc_hd__decap_4
X$571 VPWR genblk1\[18\].csa.y genblk1\[18\].csa.sc VPWR \_159_ VGND VNB
+ sky130_fd_sc_hd__xor2_1
X$572 VPWR \_159_ \_161_ genblk1\[18\].csa.hsum2 VPWR VGND VNB
+ sky130_fd_sc_hd__xnor2_1
X$573 VPWR VPWR VGND VNB sky130_fd_sc_hd__decap_6
X$574 VPWR VPWR VGND VNB sky130_fd_sc_hd__decap_6